file 4303 1488593927                                            
version 2
run Test-0-20170303-20:17:50-18198
attr configname Test
attr datetime 20170303-20:17:50
attr experiment Test
attr inifile BasicConfig.ini
attr iterationvars ""
attr iterationvars2 $repetition=0
attr measurement ""
attr network BasicTopology
attr processid 18198
attr repetition 0
attr replication #0
attr resultdir results
attr runnumber 0
attr seedset 0
param **.constraintAreaMaxX 1000m
param **.constraintAreaMaxY 1000m
param **.constraintAreaMaxZ 0m
param **.constraintAreaMinX 0m
param **.constraintAreaMinY 0m
param **.constraintAreaMinZ 0m
param **.radio.displayCommunicationRange true
param **.radio.receiver.sensitivity -61dBm
param **.radio.receiver.snirThreshold 4dB
param **.radio.transmitter.power 2mW
param **.swarmManager.remainingSeeders 0.3
param **.wlan*.mac.address "\"auto\""
param **.wlan*.mac.cwMinBroadcast 31
param **.wlan*.mac.cwMinData 7
param **.wlan*.mac.maxQueueSize 14
param **.wlan*.mac.retryLimit 7
param **.wlan*.mac.rtsThresholdBytes 3000B
param **.wlan*.mgmt.frameCapacity 10
param **.wlan*.radio.displayCommunicationRange true
param **.wlan*.radio.receiver.sensitivity -61dBm
param **.wlan*.radio.receiver.snirThreshold 4dB
param **.wlan*.radio.transmitter.power 2mW
param *.peer[*].bitTorrentApp.bitTorrentClient.processingTimeHistogram "\"../simulations/hist_55bin.dat\""
param *.peer[*].mobility.changeAngleBy "normal(0deg, 30deg)"
param *.peer[*].mobility.changeInterval "truncnormal(2s, 0.5s)"
param *.peer[*].mobility.initFromDisplayString false
param *.peer[*].mobility.speed "truncnormal(20mps, 8mps)"
param *.peer[*].mobility.updateInterval 100ms
param *.peer[*].mobilityType "\"MassMobility\""
param *.peer[*].typename "\"Peer\""
param *.peer[*].wlan0.mgmtType "\"Ieee80211MgmtAdhoc\""
param *.visualizer.mediumVisualizer.displaySignals true
param *.visualizer.mediumVisualizer.signalPropagationUpdateInterval 100ns
param *.visualizer.physicalLinkVisualizer.packetNameFilter "\"UDPData*\""
param *.visualizer.sceneVisualizer.descriptionFigure "\"title\""

vector 10  BasicTopology.peer[0].wlan0.mac.ctn[0]  state:vector  ETV
attr interpolationmode  none
attr source  stateChanged
attr title  "contention state, vector"
vector 21  BasicTopology.peer[1].wlan0.mac.ctn[0]  state:vector  ETV
attr interpolationmode  none
attr source  stateChanged
attr title  "contention state, vector"
vector 32  BasicTopology.peer[2].wlan0.mac.ctn[0]  state:vector  ETV
attr interpolationmode  none
attr source  stateChanged
attr title  "contention state, vector"
vector 6  BasicTopology.peer[0].wlan0.radio  radioMode:vector  ETV
attr interpolationmode  sample-hold
attr source  radioModeChanged
attr title  "Radio mode, vector"
vector 9  BasicTopology.peer[0].wlan0.radio  radioChannel:vector  ETV
attr interpolationmode  sample-hold
attr source  radioChannelChanged
attr title  "Radio channel, vector"
vector 17  BasicTopology.peer[1].wlan0.radio  radioMode:vector  ETV
attr interpolationmode  sample-hold
attr source  radioModeChanged
attr title  "Radio mode, vector"
vector 20  BasicTopology.peer[1].wlan0.radio  radioChannel:vector  ETV
attr interpolationmode  sample-hold
attr source  radioChannelChanged
attr title  "Radio channel, vector"
vector 28  BasicTopology.peer[2].wlan0.radio  radioMode:vector  ETV
attr interpolationmode  sample-hold
attr source  radioModeChanged
attr title  "Radio mode, vector"
vector 31  BasicTopology.peer[2].wlan0.radio  radioChannel:vector  ETV
attr interpolationmode  sample-hold
attr source  radioChannelChanged
attr title  "Radio channel, vector"
vector 7  BasicTopology.peer[0].wlan0.radio  receptionState:vector  ETV
attr interpolationmode  sample-hold
attr source  receptionStateChanged
attr title  "Radio reception state, vector"
vector 18  BasicTopology.peer[1].wlan0.radio  receptionState:vector  ETV
attr interpolationmode  sample-hold
attr source  receptionStateChanged
attr title  "Radio reception state, vector"
vector 29  BasicTopology.peer[2].wlan0.radio  receptionState:vector  ETV
attr interpolationmode  sample-hold
attr source  receptionStateChanged
attr title  "Radio reception state, vector"
6	4091 16 0 0 0 0 2 0 2 2 4
7	4107 8 0 0 0 0 1 1 1 1 1
9	4115 8 0 0 0 0 1 0 0 0 0
10	4123 36 0 0 0 0 4 0 0 0 0
17	4159 18 0 0 0 0 2 0 2 2 4
18	4177 9 0 0 0 0 1 1 1 1 1
20	4186 9 0 0 0 0 1 0 0 0 0
21	4195 36 0 0 0 0 4 0 0 0 0
28	4231 18 0 0 0 0 2 0 2 2 4
29	4249 9 0 0 0 0 1 1 1 1 1
31	4258 9 0 0 0 0 1 0 0 0 0
32	4267 36 0 0 0 0 4 0 0 0 0
