                                                                
version 2
run Test-0-20170308-20:48:11-6417
attr configname Test
attr datetime 20170308-20:48:11
attr experiment Test
attr inifile BasicConfig.ini
attr iterationvars ""
attr iterationvars2 $repetition=0
attr measurement ""
attr network BasicTopology
attr processid 6417
attr repetition 0
attr replication #0
attr resultdir results
attr runnumber 0
attr seedset 0
param **.constraintAreaMaxX 1000m
param **.constraintAreaMaxY 1000m
param **.constraintAreaMaxZ 0m
param **.constraintAreaMinX 0m
param **.constraintAreaMinY 0m
param **.constraintAreaMinZ 0m
param **.displayCommunicationRange true
param **.displayTransmissions true
param **.wlan[*].bitrate 2Mbps
param **.wlan[*].mac.address "\"auto\""
param **.wlan[*].mac.cwMinBroadcast 31
param **.wlan[*].mac.cwMinData 7
param **.wlan[*].mac.maxQueueSize 14
param **.wlan[*].mac.retryLimit 7
param **.wlan[*].mac.rtsThresholdBytes 3000B
param **.wlan[*].mgmt.frameCapacity 10
param **.wlan[*].radio.receiver.sensitivity -71dBm
param **.wlan[*].radio.receiver.snirThreshold 4dB
param **.wlan[*].radio.transmitter.power 2mW
param *.clientController.contents "xmldoc(\"../simulations/BTContents.xml\", \"contentList\")"
param *.clientController.numSeeders 1
param *.clientController.startTime 5s
param *.numPeers 8
param *.peer[*].bitTorrentApp.bitTorrentClient.communicationRange 40
param *.peer[*].bitTorrentApp.bitTorrentClient.dataTransferMode "\"object\""
param *.peer[*].bitTorrentApp.bitTorrentClient.globalNumberOfPeers 8
param *.peer[*].bitTorrentApp.bitTorrentClient.processingTimeHistogram "\"../simulations/hist_55bin.dat\""
param *.peer[*].mobility.initFromDisplayString false
param *.peer[*].mobilityType "\"StationaryMobility\""
param *.peer[*].tcpApp[0].typename "\"Peer\""
param *.peer[*].wlan[*].mgmtType "\"Ieee80211MgmtAdhoc\""
param *.peer[0].mobility.initialX 500m
param *.peer[0].mobility.initialY 500m
param *.peer[1].mobility.initialX 535m
param *.peer[1].mobility.initialY 490m
param *.peer[2].mobility.initialX 505m
param *.peer[2].mobility.initialY 520m
param *.peer[3].mobility.initialX 495m
param *.peer[3].mobility.initialY 485m
param *.peer[4].mobility.initialX 560m
param *.peer[4].mobility.initialY 400m
param *.peer[5].mobility.initialX 540m
param *.peer[5].mobility.initialY 495m
param *.peer[6].mobility.initialX 500m
param *.peer[6].mobility.initialY 500m
param *.peer[7].mobility.initialX 554m
param *.peer[7].mobility.initialY 400m
param *.radioMedium.**.maxCommunicationRange 50m

vector 10  BasicTopology.peer[0].wlan[0].mac.ctn[0]  state:vector  ETV
attr interpolationmode  none
attr source  stateChanged
attr title  "contention state, vector"
vector 21  BasicTopology.peer[1].wlan[0].mac.ctn[0]  state:vector  ETV
attr interpolationmode  none
attr source  stateChanged
attr title  "contention state, vector"
vector 32  BasicTopology.peer[2].wlan[0].mac.ctn[0]  state:vector  ETV
attr interpolationmode  none
attr source  stateChanged
attr title  "contention state, vector"
vector 43  BasicTopology.peer[3].wlan[0].mac.ctn[0]  state:vector  ETV
attr interpolationmode  none
attr source  stateChanged
attr title  "contention state, vector"
vector 54  BasicTopology.peer[4].wlan[0].mac.ctn[0]  state:vector  ETV
attr interpolationmode  none
attr source  stateChanged
attr title  "contention state, vector"
vector 65  BasicTopology.peer[5].wlan[0].mac.ctn[0]  state:vector  ETV
attr interpolationmode  none
attr source  stateChanged
attr title  "contention state, vector"
vector 76  BasicTopology.peer[6].wlan[0].mac.ctn[0]  state:vector  ETV
attr interpolationmode  none
attr source  stateChanged
attr title  "contention state, vector"
vector 87  BasicTopology.peer[7].wlan[0].mac.ctn[0]  state:vector  ETV
attr interpolationmode  none
attr source  stateChanged
attr title  "contention state, vector"
vector 6  BasicTopology.peer[0].wlan[0].radio  radioMode:vector  ETV
attr interpolationmode  sample-hold
attr source  radioModeChanged
attr title  "Radio mode, vector"
vector 9  BasicTopology.peer[0].wlan[0].radio  radioChannel:vector  ETV
