version 2
run Test-0-20170307-19:58:03-11787
attr configname Test
attr datetime 20170307-19:58:03
attr experiment Test
attr inifile BasicConfig.ini
attr iterationvars ""
attr iterationvars2 $repetition=0
attr measurement ""
attr network BasicTopology
attr processid 11787
attr repetition 0
attr replication #0
attr resultdir results
attr runnumber 0
attr seedset 0
param **.constraintAreaMaxX 1000m
param **.constraintAreaMaxY 1000m
param **.constraintAreaMaxZ 0m
param **.constraintAreaMinX 0m
param **.constraintAreaMinY 0m
param **.constraintAreaMinZ 0m
param **.displayCommunicationRange true
param **.displayTransmissions true
param **.wlan[*].bitrate 2Mbps
param **.wlan[*].mac.address "\"auto\""
param **.wlan[*].mac.cwMinBroadcast 31
param **.wlan[*].mac.cwMinData 7
param **.wlan[*].mac.maxQueueSize 14
param **.wlan[*].mac.retryLimit 7
param **.wlan[*].mac.rtsThresholdBytes 3000B
param **.wlan[*].mgmt.frameCapacity 10
param **.wlan[*].radio.receiver.sensitivity -71dBm
param **.wlan[*].radio.receiver.snirThreshold 4dB
param **.wlan[*].radio.transmitter.power 2mW
param *.clientController.contents "xmldoc(\"../simulations/BTContents.xml\", \"contentList\")"
param *.clientController.numSeeders 1
param *.clientController.startTime 5s
param *.numPeers 8
param *.peer[*].bitTorrentApp.bitTorrentClient.communicationRange 40
param *.peer[*].bitTorrentApp.bitTorrentClient.dataTransferMode "\"object\""
param *.peer[*].bitTorrentApp.bitTorrentClient.globalNumberOfPeers 8
param *.peer[*].bitTorrentApp.bitTorrentClient.processingTimeHistogram "\"../simulations/hist_55bin.dat\""
param *.peer[*].mobility.initFromDisplayString false
param *.peer[*].mobilityType "\"StationaryMobility\""
param *.peer[*].tcpApp[0].typename "\"Peer\""
param *.peer[*].wlan[*].mgmtType "\"Ieee80211MgmtAdhoc\""
param *.peer[0].mobility.initialX 500m
param *.peer[0].mobility.initialY 500m
param *.peer[1].mobility.initialX 535m
param *.peer[1].mobility.initialY 490m
param *.peer[2].mobility.initialX 505m
param *.peer[2].mobility.initialY 520m
param *.peer[3].mobility.initialX 495m
param *.peer[3].mobility.initialY 485m
param *.peer[4].mobility.initialX 560m
param *.peer[4].mobility.initialY 400m
param *.peer[5].mobility.initialX 540m
param *.peer[5].mobility.initialY 495m
param *.peer[6].mobility.initialX 500m
param *.peer[6].mobility.initialY 500m
param *.peer[7].mobility.initialX 554m
param *.peer[7].mobility.initialY 400m
param *.radioMedium.**.maxCommunicationRange 50m

vector 10  BasicTopology.peer[0].wlan[0].mac.ctn[0]  state:vector  ETV
attr interpolationmode  none
attr source  stateChanged
attr title  "contention state, vector"
vector 21  BasicTopology.peer[1].wlan[0].mac.ctn[0]  state:vector  ETV
attr interpolationmode  none
attr source  stateChanged
attr title  "contention state, vector"
vector 32  BasicTopology.peer[2].wlan[0].mac.ctn[0]  state:vector  ETV
attr interpolationmode  none
attr source  stateChanged
attr title  "contention state, vector"
vector 43  BasicTopology.peer[3].wlan[0].mac.ctn[0]  state:vector  ETV
attr interpolationmode  none
attr source  stateChanged
attr title  "contention state, vector"
vector 54  BasicTopology.peer[4].wlan[0].mac.ctn[0]  state:vector  ETV
attr interpolationmode  none
attr source  stateChanged
attr title  "contention state, vector"
vector 65  BasicTopology.peer[5].wlan[0].mac.ctn[0]  state:vector  ETV
attr interpolationmode  none
attr source  stateChanged
attr title  "contention state, vector"
vector 76  BasicTopology.peer[6].wlan[0].mac.ctn[0]  state:vector  ETV
attr interpolationmode  none
attr source  stateChanged
attr title  "contention state, vector"
vector 87  BasicTopology.peer[7].wlan[0].mac.ctn[0]  state:vector  ETV
attr interpolationmode  none
attr source  stateChanged
attr title  "contention state, vector"
vector 6  BasicTopology.peer[0].wlan[0].radio  radioMode:vector  ETV
attr interpolationmode  sample-hold
attr source  radioModeChanged
attr title  "Radio mode, vector"
vector 9  BasicTopology.peer[0].wlan[0].radio  radioChannel:vector  ETV
attr interpolationmode  sample-hold
attr source  radioChannelChanged
attr title  "Radio channel, vector"
vector 17  BasicTopology.peer[1].wlan[0].radio  radioMode:vector  ETV
attr interpolationmode  sample-hold
attr source  radioModeChanged
attr title  "Radio mode, vector"
vector 20  BasicTopology.peer[1].wlan[0].radio  radioChannel:vector  ETV
attr interpolationmode  sample-hold
attr source  radioChannelChanged
attr title  "Radio channel, vector"
vector 28  BasicTopology.peer[2].wlan[0].radio  radioMode:vector  ETV
attr interpolationmode  sample-hold
attr source  radioModeChanged
attr title  "Radio mode, vector"
vector 31  BasicTopology.peer[2].wlan[0].radio  radioChannel:vector  ETV
attr interpolationmode  sample-hold
attr source  radioChannelChanged
attr title  "Radio channel, vector"
vector 39  BasicTopology.peer[3].wlan[0].radio  radioMode:vector  ETV
attr interpolationmode  sample-hold
attr source  radioModeChanged
attr title  "Radio mode, vector"
vector 42  BasicTopology.peer[3].wlan[0].radio  radioChannel:vector  ETV
attr interpolationmode  sample-hold
attr source  radioChannelChanged
attr title  "Radio channel, vector"
vector 50  BasicTopology.peer[4].wlan[0].radio  radioMode:vector  ETV
attr interpolationmode  sample-hold
attr source  radioModeChanged
attr title  "Radio mode, vector"
vector 53  BasicTopology.peer[4].wlan[0].radio  radioChannel:vector  ETV
attr interpolationmode  sample-hold
attr source  radioChannelChanged
attr title  "Radio channel, vector"
vector 61  BasicTopology.peer[5].wlan[0].radio  radioMode:vector  ETV
attr interpolationmode  sample-hold
attr source  radioModeChanged
attr title  "Radio mode, vector"
vector 64  BasicTopology.peer[5].wlan[0].radio  radioChannel:vector  ETV
attr interpolationmode  sample-hold
attr source  radioChannelChanged
attr title  "Radio channel, vector"
vector 72  BasicTopology.peer[6].wlan[0].radio  radioMode:vector  ETV
attr interpolationmode  sample-hold
attr source  radioModeChanged
attr title  "Radio mode, vector"
vector 75  BasicTopology.peer[6].wlan[0].radio  radioChannel:vector  ETV
attr interpolationmode  sample-hold
attr source  radioChannelChanged
attr title  "Radio channel, vector"
vector 83  BasicTopology.peer[7].wlan[0].radio  radioMode:vector  ETV
attr interpolationmode  sample-hold
attr source  radioModeChanged
attr title  "Radio mode, vector"
vector 86  BasicTopology.peer[7].wlan[0].radio  radioChannel:vector  ETV
attr interpolationmode  sample-hold
attr source  radioChannelChanged
attr title  "Radio channel, vector"
vector 7  BasicTopology.peer[0].wlan[0].radio  receptionState:vector  ETV
attr interpolationmode  sample-hold
attr source  receptionStateChanged
attr title  "Radio reception state, vector"
vector 18  BasicTopology.peer[1].wlan[0].radio  receptionState:vector  ETV
attr interpolationmode  sample-hold
attr source  receptionStateChanged
attr title  "Radio reception state, vector"
vector 29  BasicTopology.peer[2].wlan[0].radio  receptionState:vector  ETV
attr interpolationmode  sample-hold
attr source  receptionStateChanged
attr title  "Radio reception state, vector"
vector 40  BasicTopology.peer[3].wlan[0].radio  receptionState:vector  ETV
attr interpolationmode  sample-hold
attr source  receptionStateChanged
attr title  "Radio reception state, vector"
vector 51  BasicTopology.peer[4].wlan[0].radio  receptionState:vector  ETV
attr interpolationmode  sample-hold
attr source  receptionStateChanged
attr title  "Radio reception state, vector"
vector 62  BasicTopology.peer[5].wlan[0].radio  receptionState:vector  ETV
attr interpolationmode  sample-hold
attr source  receptionStateChanged
attr title  "Radio reception state, vector"
vector 73  BasicTopology.peer[6].wlan[0].radio  receptionState:vector  ETV
attr interpolationmode  sample-hold
attr source  receptionStateChanged
attr title  "Radio reception state, vector"
vector 84  BasicTopology.peer[7].wlan[0].radio  receptionState:vector  ETV
attr interpolationmode  sample-hold
attr source  receptionStateChanged
attr title  "Radio reception state, vector"
6	0	0	0
6	0	0	2
7	0	0	1
9	0	0	0
10	0	0	0
10	0	0	0
10	0	0	0
10	0	0	0
17	0	0	0
17	0	0	2
18	0	0	1
20	0	0	0
21	0	0	0
21	0	0	0
21	0	0	0
21	0	0	0
28	0	0	0
28	0	0	2
29	0	0	1
31	0	0	0
32	0	0	0
32	0	0	0
32	0	0	0
32	0	0	0
39	0	0	0
39	0	0	2
40	0	0	1
42	0	0	0
43	0	0	0
43	0	0	0
43	0	0	0
43	0	0	0
50	0	0	0
50	0	0	2
51	0	0	1
53	0	0	0
54	0	0	0
54	0	0	0
54	0	0	0
54	0	0	0
61	0	0	0
61	0	0	2
62	0	0	1
64	0	0	0
65	0	0	0
65	0	0	0
65	0	0	0
65	0	0	0
72	0	0	0
72	0	0	2
73	0	0	1
75	0	0	0
76	0	0	0
76	0	0	0
76	0	0	0
76	0	0	0
83	0	0	0
83	0	0	2
84	0	0	1
86	0	0	0
87	0	0	0
87	0	0	0
87	0	0	0
87	0	0	0
